#p MP2/6-31G* SCF(Tight) opt(VeryTight) nosymm

C2H4-opt

  0  1
C 0   -0.668500   -0.003159   -0.000000
C 0    0.668500   -0.003159   -0.000000
H 0   -1.226792   -0.003159   -0.947792
H 0   -1.226771    0.006318    0.947757
H 0    1.226792   -0.003159    0.947792
H 0    1.226771    0.006318   -0.947757

