%oldchk=CH3CHO-old
#t NoSymm Freq(Anharmonic, ReadFC) Temperature=2500 IOp(7/33=3)

Title

0 1
C   -0.852693    0.499814   -0.000294
C    0.685096    0.670458    0.000342
O    1.340323   -0.602319   -0.000432
O   -1.349649   -0.611839    0.000139
H   -1.450829    1.425645   -0.001000
H    0.974215    1.253523    0.883979
H    0.975003    1.254674   -0.882236
H    0.581799   -1.242205    0.001322

