%chk=CH4.chk
#p Freq NoSymm

CH4

0 1
 C                  0.00000000    0.00000000    0.00000000
 H                  0.00000000    0.00000000    1.08301634
 H                 -0.00000000   -1.02107759   -0.36100545
 H                  0.88427913    0.51053880   -0.36100545
 H                 -0.88427913    0.51053880   -0.36100545
 
