%chk=H2O2_freq_polar_3.chk
#p RHF/6-31G NoSymm Freq(Raman) CPHF=RdFreq

H2O2 Frequency-Dependent Polarizability (Raman)

0 1
O  0.0  0.0  0.0
O  0.0  0.0  1.5
H  1.0  0.0  0.0
H  0.0  0.7  1.0

  65403.4401483196cm
  65622.9147796898cm
  65842.3894110600cm
  66061.8640424302cm
  66281.3386738004cm
  66500.8133051706cm
  66720.2879365408cm
  66939.7625679110cm
  67159.2371992812cm
  67378.7118306514cm
  67598.1864620216cm
  67817.6610933918cm
  68037.1357247620cm
  68256.6103561322cm
  68476.0849875024cm
  68695.5596188726cm
  68915.0342502428cm
  69134.5088816130cm
  69353.9835129832cm
  69573.4581443534cm
  69792.9327757236cm
  70012.4074070938cm
  70231.8820384640cm
  70451.3566698342cm
  70670.8313012044cm
  70890.3059325746cm
  71109.7805639448cm
  71329.2551953150cm
  71548.7298266852cm
  71768.2044580554cm
  71987.6790894256cm
  72207.1537207958cm
  72426.6283521660cm
  72646.1029835362cm
  72865.5776149064cm
  73085.0522462766cm
  73304.5268776468cm
  73524.0015090170cm
  73743.4761403872cm
  73962.9507717574cm
  74182.4254031276cm
  74401.9000344978cm
  74621.3746658680cm
  74840.8492972382cm
  75060.3239286084cm
  75279.7985599786cm
  75499.2731913488cm
  75718.7478227190cm
  75938.2224540892cm
  76157.6970854594cm
  76377.1717168296cm
  76596.6463481998cm
  76816.1209795700cm
  77035.5956109402cm
  77255.0702423104cm
  77474.5448736806cm
  77694.0195050508cm
  77913.4941364210cm
  78132.9687677912cm
  78352.4433991614cm
  78571.9180305316cm
  78791.3926619018cm
  79010.8672932720cm
  79230.3419246422cm
  79449.8165560124cm
  79669.2911873826cm
  79888.7658187528cm
  80108.2404501230cm
  80327.7150814932cm
  80547.1897128634cm
  80766.6643442336cm
  80986.1389756038cm
  81205.6136069740cm
  81425.0882383442cm
  81644.5628697144cm
  81864.0375010846cm
  82083.5121324548cm
  82302.9867638250cm
  82522.4613951952cm
  82741.9360265654cm
  82961.4106579356cm
  83180.8852893058cm
  83400.3599206760cm
  83619.8345520462cm
  83839.3091834164cm
  84058.7838147866cm
  84278.2584461568cm
  84497.7330775270cm
  84717.2077088972cm
  84936.6823402674cm
  85156.1569716376cm
  85375.6316030078cm
  85595.1062343780cm
  85814.5808657482cm
  86034.0554971184cm
  86253.5301284886cm
  86473.0047598588cm
  86692.4793912290cm
  86911.9540225992cm
