%chk=H2O2_freq_polar_2.chk
#p RHF/6-31G NoSymm Freq(Raman) CPHF=RdFreq

H2O2 Frequency-Dependent Polarizability (Raman)

0 1
O  0.0  0.0  0.0
O  0.0  0.0  1.5
H  1.0  0.0  0.0
H  0.0  0.7  1.0

  43675.4516426698cm
  43894.9262740400cm
  44114.4009054102cm
  44333.8755367804cm
  44553.3501681506cm
  44772.8247995208cm
  44992.2994308910cm
  45211.7740622612cm
  45431.2486936314cm
  45650.7233250016cm
  45870.1979563718cm
  46089.6725877420cm
  46309.1472191122cm
  46528.6218504824cm
  46748.0964818526cm
  46967.5711132228cm
  47187.0457445930cm
  47406.5203759632cm
  47625.9950073334cm
  47845.4696387036cm
  48064.9442700738cm
  48284.4189014440cm
  48503.8935328142cm
  48723.3681641844cm
  48942.8427955546cm
  49162.3174269248cm
  49381.7920582950cm
  49601.2666896652cm
  49820.7413210354cm
  50040.2159524056cm
  50259.6905837758cm
  50479.1652151460cm
  50698.6398465162cm
  50918.1144778864cm
  51137.5891092566cm
  51357.0637406268cm
  51576.5383719970cm
  51796.0130033672cm
  52015.4876347374cm
  52234.9622661076cm
  52454.4368974778cm
  52673.9115288480cm
  52893.3861602182cm
  53112.8607915884cm
  53332.3354229586cm
  53551.8100543288cm
  53771.2846856990cm
  53990.7593170692cm
  54210.2339484394cm
  54429.7085798096cm
  54649.1832111798cm
  54868.6578425500cm
  55088.1324739202cm
  55307.6071052904cm
  55527.0817366606cm
  55746.5563680308cm
  55966.0309994010cm
  56185.5056307712cm
  56404.9802621414cm
  56624.4548935116cm
  56843.9295248818cm
  57063.4041562520cm
  57282.8787876222cm
  57502.3534189924cm
  57721.8280503626cm
  57941.3026817328cm
  58160.7773131030cm
  58380.2519444732cm
  58599.7265758434cm
  58819.2012072136cm
  59038.6758385838cm
  59258.1504699540cm
  59477.6251013242cm
  59697.0997326944cm
  59916.5743640646cm
  60136.0489954348cm
  60355.5236268050cm
  60574.9982581752cm
  60794.4728895454cm
  61013.9475209156cm
  61233.4221522858cm
  61452.8967836560cm
  61672.3714150262cm
  61891.8460463964cm
  62111.3206777666cm
  62330.7953091368cm
  62550.2699405070cm
  62769.7445718772cm
  62989.2192032474cm
  63208.6938346176cm
  63428.1684659878cm
  63647.6430973580cm
  63867.1177287282cm
  64086.5923600984cm
  64306.0669914686cm
  64525.5416228388cm
  64745.0162542090cm
  64964.4908855792cm
  65183.9655169494cm
